Circuit: * C:\Users\user\Documents\4th YEAR_1st SEM\CPE160- EMBEDDED SYSTEM AND DESIGN\NavarroRodGeryk_CPE160P_A1_CourseWork1.asc

Direct Newton iteration for .op point succeeded.

vout: MAX(v(vout))=0.499516 FROM 0 TO 0.1
vin: MAX(v(vin))=0.0999985 FROM 0 TO 0.1
gain: vout/vin=4.99524


Date: Sat Aug 17 18:59:11 2024
Total elapsed time: 0.080 seconds.

tnom = 27
temp = 27
method = modified trap
totiter = 2106
traniter = 2082
tranpoints = 1042
accept = 1042
rejected = 0
matrix size = 11
fillins = 2
solver = Normal
Matrix Compiler1: 570 bytes object code size  0.2/0.1/[0.1]
Matrix Compiler2: 1.00 KB object code size  0.1/0.2/[0.1]

